REMARK  3 active torsions:
REMARK  status: ('A' for Active; 'I' for Inactive)
REMARK    1  A    between atoms: N_1  and  C_2 
REMARK    2  A    between atoms: C_2  and  C_3 
REMARK    3  A    between atoms: C_3  and  C_5 
ROOT
HETATM    1  C   UNL     1       0.903   0.221  -0.375  1.00  0.00    -0.056 A 
HETATM    2  C   UNL     1       1.509   1.231   0.355  1.00  0.00     0.007 A 
HETATM    3  C   UNL     1       1.597  -0.922  -0.737  1.00  0.00     0.007 A 
HETATM    4  C   UNL     1       2.844   1.094   0.734  1.00  0.00     0.001 A 
HETATM    5  C   UNL     1       2.933  -1.060  -0.357  1.00  0.00     0.001 A 
HETATM    6  C   UNL     1       3.556  -0.052   0.378  1.00  0.00     0.000 A 
ENDROOT
BRANCH   1   7
HETATM    7  C   UNL     1      -0.543   0.370  -0.786  1.00  0.00     0.074 C 
BRANCH   7   8
HETATM    8  C   UNL     1      -1.537  -0.194   0.245  1.00  0.00     0.222 C 
HETATM    9  C   UNL     1      -1.351  -1.693   0.481  1.00  0.00     0.043 C 
BRANCH   8  10
HETATM   10  N   UNL     1      -2.908   0.033  -0.223  1.00  0.00     0.084 N 
HETATM   11  C   UNL     1      -3.134   1.456  -0.463  1.00  0.00     0.309 C 
HETATM   12  C   UNL     1      -3.869  -0.483   0.749  1.00  0.00     0.309 C 
ENDBRANCH   8  10
ENDBRANCH   7   8
ENDBRANCH   1   7
TORSDOF 3
