REMARK  5 active torsions:
REMARK  status: ('A' for Active; 'I' for Inactive)
REMARK    1  A    between atoms: O_1  and  C_9 
REMARK    2  A    between atoms: O_2  and  C_28 
REMARK    3  A    between atoms: O_2  and  C_31 
REMARK    4  A    between atoms: O_8  and  C_36 
REMARK    5  A    between atoms: C_14  and  C_25 
ROOT
HETATM    1  C   UNL     1      -3.581   0.410   0.089  1.00  0.00     0.070 C 
HETATM    2  C   UNL     1      -4.330  -0.718  -0.672  1.00  0.00    -0.005 C 
HETATM    3  C   UNL     1      -2.136   0.032   0.516  1.00  0.00     0.026 C 
HETATM    4  C   UNL     1      -1.286  -0.567  -0.638  1.00  0.00     0.005 C 
HETATM    5  C   UNL     1       0.179  -0.957  -0.194  1.00  0.00    -0.017 C 
HETATM    6  C   UNL     1      -5.533   0.035  -1.322  1.00  0.00     0.032 C 
HETATM    7  C   UNL     1      -3.429  -1.292  -1.800  1.00  0.00     0.013 C 
HETATM    8  C   UNL     1      -2.046  -1.723  -1.315  1.00  0.00     0.007 C 
HETATM    9  C   UNL     1      -3.677   1.612  -0.868  1.00  0.00     0.040 C 
HETATM   10  C   UNL     1      -1.403   1.225   1.160  1.00  0.00     0.012 C 
HETATM   11  C   UNL     1      -4.969   1.424  -1.676  1.00  0.00     0.013 C 
HETATM   12  C   UNL     1       0.808   0.220   0.561  1.00  0.00    -0.072 C 
HETATM   13  C   UNL     1      -4.782  -1.879   0.238  1.00  0.00     0.019 C 
HETATM   14  C   UNL     1      -0.019   0.833   1.662  1.00  0.00     0.035 C 
HETATM   15  C   UNL     1       1.011  -1.298  -1.471  1.00  0.00     0.017 C 
HETATM   16  C   UNL     1       0.195  -2.190   0.741  1.00  0.00     0.020 C 
HETATM   17  C   UNL     1       2.515  -1.250  -1.230  1.00  0.00     0.037 C 
HETATM   18  C   UNL     1       2.033   0.704   0.281  1.00  0.00     0.008 C 
HETATM   19  C   UNL     1       2.945   0.137  -0.762  1.00  0.00     0.147 C 
ENDROOT
BRANCH  19  20
HETATM   20  O   UNL     1       4.261   0.057  -0.223  1.00  0.00    -0.349 OA
BRANCH  20  21
HETATM   21  C   UNL     1       5.248   0.260  -1.228  1.00  0.00     0.292 C 
HETATM   22  O   UNL     1       5.527   1.651  -1.397  1.00  0.00    -0.351 OA
HETATM   23  C   UNL     1       6.107   2.243  -0.228  1.00  0.00     0.152 C 
HETATM   24  C   UNL     1       7.485   1.631   0.020  1.00  0.00     0.178 C 
HETATM   25  C   UNL     1       6.195   3.747  -0.471  1.00  0.00     0.042 C 
HETATM   26  C   UNL     1       7.439   0.111   0.101  1.00  0.00     0.190 C 
HETATM   27  O   UNL     1       6.896  -0.389   1.326  1.00  0.00    -0.345 OA
HETATM   28  C   UNL     1       6.538  -0.526  -0.939  1.00  0.00     0.211 C 
HETATM   29  C   UNL     1       6.535  -1.744   1.001  1.00  0.00     0.158 C 
HETATM   30  O   UNL     1       6.232  -1.822  -0.405  1.00  0.00    -0.343 OA
HETATM   31  C   UNL     1       7.706  -2.685   1.296  1.00  0.00     0.078 C 
HETATM   32  C   UNL     1       5.326  -2.159   1.831  1.00  0.00     0.078 C 
BRANCH  24  33
HETATM   33  O   UNL     1       8.080   2.161   1.196  1.00  0.00    -0.390 OA
HETATM   34  H   UNL     1       8.954   1.747   1.296  1.00  0.00     0.210 HD
ENDBRANCH  24  33
ENDBRANCH  20  21
ENDBRANCH  19  20
BRANCH   1  35
HETATM   35  O   UNL     1      -4.311   0.782   1.268  1.00  0.00    -0.389 OA
HETATM   36  H   UNL     1      -4.194   0.084   1.933  1.00  0.00     0.210 HD
ENDBRANCH   1  35
BRANCH   6  37
HETATM   37  C   UNL     1      -6.762   0.176  -0.470  1.00  0.00    -0.030 A 
HETATM   38  C   UNL     1      -7.795  -0.820  -0.584  1.00  0.00     0.015 A 
HETATM   39  C   UNL     1      -8.909  -0.741   0.151  1.00  0.00     0.083 A 
HETATM   40  C   UNL     1      -9.105   0.375   1.099  1.00  0.00     0.287 A 
HETATM   41  O   UNL     1      -8.105   1.308   1.188  1.00  0.00    -0.287 OA
HETATM   42  O   UNL     1     -10.127   0.450   1.774  1.00  0.00    -0.260 OA
HETATM   43  C   UNL     1      -6.957   1.177   0.394  1.00  0.00     0.153 A 
ENDBRANCH   6  37
TORSDOF 5
