REMARK  6 active torsions:
REMARK  status: ('A' for Active; 'I' for Inactive)
REMARK    1  A    between atoms: O_4  and  C_12 
REMARK    2  A    between atoms: N_7  and  C_16 
REMARK       I    between atoms: N_7  and  C_19 
REMARK    3  A    between atoms: C_8  and  C_9 
REMARK    4  A    between atoms: C_8  and  C_10 
REMARK    5  A    between atoms: C_8  and  C_12 
REMARK    6  A    between atoms: C_9  and  C_11 
ROOT
HETATM    1  I   UNL     1       0.670   2.420  -1.359  1.00  0.00    -0.042 I 
HETATM    2  I   UNL     1      -2.104  -2.947  -0.427  1.00  0.00    -0.044 I 
HETATM    3  I   UNL     1       3.772  -2.539   0.456  1.00  0.00    -0.042 I 
HETATM    4  C   UNL     1      -0.423  -0.395  -0.810  1.00  0.00    -0.022 A 
HETATM    5  C   UNL     1       0.739   0.368  -0.813  1.00  0.00     0.042 A 
HETATM    6  C   UNL     1      -0.391  -1.738  -0.455  1.00  0.00     0.015 A 
HETATM    7  C   UNL     1       1.951  -0.222  -0.455  1.00  0.00     0.068 A 
HETATM    8  C   UNL     1       0.822  -2.328  -0.097  1.00  0.00     0.039 A 
HETATM    9  C   UNL     1       1.993  -1.569  -0.097  1.00  0.00     0.035 A 
ENDROOT
BRANCH   4  10
HETATM   10  C   UNL     1      -1.741   0.234  -1.197  1.00  0.00     0.056 C 
BRANCH  10  11
HETATM   11  C   UNL     1      -2.499   0.838  -0.001  1.00  0.00     0.087 C 
BRANCH  11  12
HETATM   12  C   UNL     1      -3.509   1.894  -0.487  1.00  0.00     0.011 C 
HETATM   13  C   UNL     1      -4.237   2.584   0.661  1.00  0.00     0.006 C 
ENDBRANCH  11  12
BRANCH  11  14
HETATM   14  C   UNL     1      -3.224  -0.269   0.753  1.00  0.00     0.144 C 
HETATM   15  O   UNL     1      -4.363  -0.645   0.505  1.00  0.00    -0.650 OA
BRANCH  14  16
HETATM   16  O   UNL     1      -2.462  -0.824   1.729  1.00  0.00    -0.776 OA
HETATM   17  H   UNL     1      -2.934  -1.544   2.198  1.00  0.00     0.167 HD
ENDBRANCH  14  16
ENDBRANCH  11  14
ENDBRANCH  10  11
ENDBRANCH   4  10
BRANCH   7  18
HETATM   18  N   UNL     1       3.133   0.533  -0.451  1.00  0.00    -0.325 N 
HETATM   19  C   UNL     1       3.678   1.269   0.604  1.00  0.00     0.218 C 
HETATM   20  O   UNL     1       3.230   1.397   1.738  1.00  0.00    -0.274 OA
HETATM   21  C   UNL     1       4.966   1.942   0.202  1.00  0.00     0.117 C 
HETATM   22  H   UNL     1       3.571   0.632  -1.364  1.00  0.00     0.169 HD
ENDBRANCH   7  18
TORSDOF 6
