REMARK  5 active torsions:
REMARK  status: ('A' for Active; 'I' for Inactive)
REMARK    1  A    between atoms: N_5  and  C_12 
REMARK    2  A    between atoms: N_6  and  C_15 
REMARK    3  A    between atoms: N_6  and  C_16 
REMARK    4  A    between atoms: N_9  and  C_20 
REMARK    5  A    between atoms: C_12  and  C_15 
ROOT
HETATM    1  O   UNL     1      -3.454   2.654   0.311  1.00  0.00    -0.106 OA
HETATM    2  N   UNL     1      -2.093   2.430   0.202  1.00  0.00    -0.101 NA
HETATM    3  N   UNL     1      -4.178   1.476   0.232  1.00  0.00    -0.100 NA
HETATM    4  C   UNL     1      -0.753   0.356  -0.102  1.00  0.00     0.062 A 
HETATM    5  C   UNL     1      -1.949   1.107   0.053  1.00  0.00     0.146 A 
HETATM    6  C   UNL     1      -0.994  -1.037  -0.234  1.00  0.00     0.034 A 
HETATM    7  C   UNL     1      -3.275   0.501   0.072  1.00  0.00     0.152 A 
HETATM    8  C   UNL     1      -3.470  -0.886  -0.063  1.00  0.00     0.136 A 
HETATM    9  C   UNL     1      -2.285  -1.627  -0.216  1.00  0.00     0.041 A 
ENDROOT
BRANCH   4  10
HETATM   10  N   UNL     1       0.517   0.889  -0.124  1.00  0.00    -0.386 N 
HETATM   11  H   UNL     1       0.610   1.893  -0.025  1.00  0.00     0.159 HD
BRANCH  10  12
HETATM   12  C   UNL     1       1.720   0.079  -0.284  1.00  0.00     0.150 C 
BRANCH  12  13
HETATM   13  C   UNL     1       2.961   0.965  -0.228  1.00  0.00     0.292 C 
BRANCH  13  14
HETATM   14  N   UNL     1       4.167   0.152  -0.371  1.00  0.00     0.094 N 
HETATM   15  C   UNL     1       5.367   1.000  -0.404  1.00  0.00     0.298 C 
HETATM   16  C   UNL     1       6.612   0.129  -0.541  1.00  0.00     0.198 C 
HETATM   17  O   UNL     1       6.690  -0.802   0.539  1.00  0.00    -0.388 OA
HETATM   18  C   UNL     1       5.542  -1.652   0.559  1.00  0.00     0.198 C 
HETATM   19  C   UNL     1       4.270  -0.824   0.722  1.00  0.00     0.298 C 
ENDBRANCH  13  14
ENDBRANCH  12  13
ENDBRANCH  10  12
ENDBRANCH   4  10
BRANCH   8  20
HETATM   20  N   UNL     1      -4.757  -1.467  -0.046  1.00  0.00    -0.113 N 
HETATM   21  O   UNL     1      -4.872  -2.714  -0.173  1.00  0.00    -0.532 OA
HETATM   22  O   UNL     1      -5.766  -0.727   0.096  1.00  0.00    -0.532 OA
ENDBRANCH   8  20
TORSDOF 5
