40001
  -OEChem-06181713293D

 34 34  0     1  0  0  0  0  0999 V2000
    0.6700    2.4198   -1.3586 I   0  0  0  0  0  0  0  0  0  0  0  0
   -2.1040   -2.9473   -0.4271 I   0  0  0  0  0  0  0  0  0  0  0  0
    3.7716   -2.5394    0.4564 I   0  0  0  0  0  0  0  0  0  0  0  0
   -2.4616   -0.8239    1.7293 O   0  0  0  0  0  0  0  0  0  0  0  0
   -4.3630   -0.6455    0.5053 O   0  0  0  0  0  0  0  0  0  0  0  0
    3.2301    1.3968    1.7385 O   0  0  0  0  0  0  0  0  0  0  0  0
    3.1329    0.5327   -0.4512 N   0  0  0  0  0  0  0  0  0  0  0  0
   -2.4994    0.8382   -0.0006 C   0  0  1  0  0  0  0  0  0  0  0  0
   -1.7411    0.2337   -1.1969 C   0  0  0  0  0  0  0  0  0  0  0  0
   -3.5092    1.8941   -0.4870 C   0  0  0  0  0  0  0  0  0  0  0  0
   -0.4233   -0.3947   -0.8105 C   0  0  0  0  0  0  0  0  0  0  0  0
   -3.2242   -0.2692    0.7529 C   0  0  0  0  0  0  0  0  0  0  0  0
   -4.2365    2.5836    0.6608 C   0  0  0  0  0  0  0  0  0  0  0  0
    0.7388    0.3678   -0.8126 C   0  0  0  0  0  0  0  0  0  0  0  0
   -0.3907   -1.7380   -0.4552 C   0  0  0  0  0  0  0  0  0  0  0  0
    1.9512   -0.2220   -0.4546 C   0  0  0  0  0  0  0  0  0  0  0  0
    0.8215   -2.3276   -0.0973 C   0  0  0  0  0  0  0  0  0  0  0  0
    1.9926   -1.5695   -0.0970 C   0  0  0  0  0  0  0  0  0  0  0  0
    3.6781    1.2687    0.6037 C   0  0  0  0  0  0  0  0  0  0  0  0
    4.9663    1.9419    0.2015 C   0  0  0  0  0  0  0  0  0  0  0  0
   -1.8114    1.3297    0.6991 H   0  0  0  0  0  0  0  0  0  0  0  0
   -1.5975    0.9831   -1.9810 H   0  0  0  0  0  0  0  0  0  0  0  0
   -2.3807   -0.4770   -1.7323 H   0  0  0  0  0  0  0  0  0  0  0  0
   -4.2495    1.4388   -1.1563 H   0  0  0  0  0  0  0  0  0  0  0  0
   -2.9843    2.6610   -1.0691 H   0  0  0  0  0  0  0  0  0  0  0  0
   -4.8613    1.8878    1.2279 H   0  0  0  0  0  0  0  0  0  0  0  0
   -4.8895    3.3705    0.2696 H   0  0  0  0  0  0  0  0  0  0  0  0
   -3.5251    3.0489    1.3506 H   0  0  0  0  0  0  0  0  0  0  0  0
    0.8535   -3.3787    0.1823 H   0  0  0  0  0  0  0  0  0  0  0  0
    3.5712    0.6316   -1.3644 H   0  0  0  0  0  0  0  0  0  0  0  0
   -2.9345   -1.5444    2.1978 H   0  0  0  0  0  0  0  0  0  0  0  0
    5.6560    1.2085   -0.2259 H   0  0  0  0  0  0  0  0  0  0  0  0
    5.4355    2.3967    1.0783 H   0  0  0  0  0  0  0  0  0  0  0  0
    4.7574    2.7209   -0.5368 H   0  0  0  0  0  0  0  0  0  0  0  0
  1 14  1  0  0  0  0
  2 15  1  0  0  0  0
  3 18  1  0  0  0  0
  4 12  1  0  0  0  0
  4 31  1  0  0  0  0
  5 12  2  0  0  0  0
  6 19  2  0  0  0  0
  7 16  1  0  0  0  0
  7 19  1  0  0  0  0
  7 30  1  0  0  0  0
  8  9  1  0  0  0  0
  8 10  1  0  0  0  0
  8 12  1  0  0  0  0
  8 21  1  0  0  0  0
  9 11  1  0  0  0  0
  9 22  1  0  0  0  0
  9 23  1  0  0  0  0
 10 13  1  0  0  0  0
 10 24  1  0  0  0  0
 10 25  1  0  0  0  0
 11 14  2  0  0  0  0
 11 15  1  0  0  0  0
 13 26  1  0  0  0  0
 13 27  1  0  0  0  0
 13 28  1  0  0  0  0
 14 16  1  0  0  0  0
 15 17  2  0  0  0  0
 16 18  2  0  0  0  0
 17 18  1  0  0  0  0
 17 29  1  0  0  0  0
 19 20  1  0  0  0  0
 20 32  1  0  0  0  0
 20 33  1  0  0  0  0
 20 34  1  0  0  0  0
M  END
> <PUBCHEM_COMPOUND_CID>
40001

> <PUBCHEM_CONFORMER_RMSD>
0.8

> <PUBCHEM_CONFORMER_DIVERSEORDER>
1
21
7
20
4
17
9
23
22
6
18
12
3
19
14
2
10
16
8
15
13
11
5

> <PUBCHEM_MMFF94_PARTIAL_CHARGES>
21
1 -0.08
11 -0.14
12 0.66
14 0.08
15 0.08
16 0.12
17 -0.15
18 0.08
19 0.57
2 -0.08
20 0.06
29 0.15
3 -0.08
30 0.37
31 0.5
4 -0.65
5 -0.57
6 -0.57
7 -0.55
8 0.06
9 0.14

> <PUBCHEM_EFFECTIVE_ROTOR_COUNT>
6

> <PUBCHEM_PHARMACOPHORE_FEATURES>
10
1 1 hydrophobe
1 13 hydrophobe
1 2 hydrophobe
1 3 hydrophobe
1 4 acceptor
1 5 acceptor
1 6 acceptor
1 7 donor
3 4 5 12 anion
6 11 14 15 16 17 18 rings

> <PUBCHEM_HEAVY_ATOM_COUNT>
20

> <PUBCHEM_ATOM_DEF_STEREO_COUNT>
0

> <PUBCHEM_ATOM_UDEF_STEREO_COUNT>
1

> <PUBCHEM_BOND_DEF_STEREO_COUNT>
0

> <PUBCHEM_BOND_UDEF_STEREO_COUNT>
0

> <PUBCHEM_ISOTOPIC_ATOM_COUNT>
0

> <PUBCHEM_COMPONENT_COUNT>
1

> <PUBCHEM_CACTVS_TAUTO_COUNT>
2

> <PUBCHEM_CONFORMER_ID>
00009C4100000001

> <PUBCHEM_MMFF94_ENERGY>
87.104

> <PUBCHEM_FEATURE_SELFOVERLAP>
50.805

> <PUBCHEM_SHAPE_FINGERPRINT>
11132069 177 18336833107678899487
12251169 10 18261677085610281207
12390115 104 18341062916374367356
12507560 40 18408326562078291075
12633257 1 18122065290924433009
12670546 177 10375860888189536488
12788726 201 17760660556355206124
12892183 10 18335145301558771011
13140716 1 18335415725748659454
14081887 123 18269831085359175355
14178342 30 18265046006607891206
14289901 80 18336267937121592154
14787075 74 17987233528772482393
14955137 171 17969514860758666188
15209294 21 18270963573893451954
15295992 7 18340206267560713459
16945 1 18189623919504690295
18186145 218 17917719015056320654
19784866 170 18261111863973055916
20510252 161 17909824676303782090
20739085 24 18189345580254889460
21033648 29 18272929440301601528
23557571 272 17415289604400749966
23558518 356 18335421308900390703
23559900 14 17968382217177804990
2748010 2 18262234400397974431
350125 39 18265052432343111956
495365 180 18196075656595095933
5104073 3 18335427811880959593
633830 44 17987518113347713885
7097593 13 18334295391834186766
7808743 9 18267867362214326432

> <PUBCHEM_SHAPE_MULTIPOLES>
424.81
8.43
3.7
1.27
1.02
0.71
-0.18
-3.25
-3.22
0.48
0.28
-0.14
-0.37
-0.08

> <PUBCHEM_SHAPE_SELFOVERLAP>
811.305

> <PUBCHEM_SHAPE_VOLUME>
268.3

> <PUBCHEM_COORDINATE_TYPE>
2
5
10

$$$$
