47628
  -OEChem-06181713293D

 36 38  0     0  0  0  0  0  0999 V2000
    6.6896   -0.8019    0.5389 O   0  0  0  0  0  0  0  0  0  0  0  0
   -3.4544    2.6535    0.3110 O   0  0  0  0  0  0  0  0  0  0  0  0
   -4.8716   -2.7141   -0.1735 O   0  5  0  0  0  0  0  0  0  0  0  0
   -5.7655   -0.7273    0.0958 O   0  0  0  0  0  0  0  0  0  0  0  0
    4.1670    0.1521   -0.3709 N   0  0  0  0  0  0  0  0  0  0  0  0
    0.5167    0.8887   -0.1238 N   0  0  0  0  0  0  0  0  0  0  0  0
   -2.0926    2.4300    0.2020 N   0  0  0  0  0  0  0  0  0  0  0  0
   -4.1781    1.4760    0.2317 N   0  0  0  0  0  0  0  0  0  0  0  0
   -4.7574   -1.4672   -0.0462 N   0  3  0  0  0  0  0  0  0  0  0  0
    5.3668    0.9999   -0.4039 C   0  0  0  0  0  0  0  0  0  0  0  0
    4.2704   -0.8244    0.7224 C   0  0  0  0  0  0  0  0  0  0  0  0
    2.9609    0.9650   -0.2283 C   0  0  0  0  0  0  0  0  0  0  0  0
    6.6123    0.1290   -0.5412 C   0  0  0  0  0  0  0  0  0  0  0  0
    5.5421   -1.6519    0.5595 C   0  0  0  0  0  0  0  0  0  0  0  0
    1.7198    0.0792   -0.2841 C   0  0  0  0  0  0  0  0  0  0  0  0
   -0.7532    0.3558   -0.1016 C   0  0  0  0  0  0  0  0  0  0  0  0
   -1.9492    1.1072    0.0529 C   0  0  0  0  0  0  0  0  0  0  0  0
   -0.9937   -1.0371   -0.2341 C   0  0  0  0  0  0  0  0  0  0  0  0
   -3.2750    0.5008    0.0718 C   0  0  0  0  0  0  0  0  0  0  0  0
   -3.4704   -0.8860   -0.0629 C   0  0  0  0  0  0  0  0  0  0  0  0
   -2.2847   -1.6275   -0.2156 C   0  0  0  0  0  0  0  0  0  0  0  0
    5.4376    1.5948    0.5160 H   0  0  0  0  0  0  0  0  0  0  0  0
    5.3215    1.6911   -1.2531 H   0  0  0  0  0  0  0  0  0  0  0  0
    3.4508   -1.5468    0.7200 H   0  0  0  0  0  0  0  0  0  0  0  0
    4.2850   -0.3146    1.6944 H   0  0  0  0  0  0  0  0  0  0  0  0
    2.9065    1.6947   -1.0466 H   0  0  0  0  0  0  0  0  0  0  0  0
    2.9739    1.5387    0.7083 H   0  0  0  0  0  0  0  0  0  0  0  0
    7.5100    0.7545   -0.5061 H   0  0  0  0  0  0  0  0  0  0  0  0
    6.6236   -0.4140   -1.4942 H   0  0  0  0  0  0  0  0  0  0  0  0
    5.5183   -2.2562   -0.3556 H   0  0  0  0  0  0  0  0  0  0  0  0
    5.6525   -2.3376    1.4059 H   0  0  0  0  0  0  0  0  0  0  0  0
    1.6875   -0.4559   -1.2409 H   0  0  0  0  0  0  0  0  0  0  0  0
    1.7129   -0.6483    0.5308 H   0  0  0  0  0  0  0  0  0  0  0  0
    0.6102    1.8934   -0.0251 H   0  0  0  0  0  0  0  0  0  0  0  0
   -0.1581   -1.7249   -0.3614 H   0  0  0  0  0  0  0  0  0  0  0  0
   -2.3319   -2.7106   -0.3283 H   0  0  0  0  0  0  0  0  0  0  0  0
  1 13  1  0  0  0  0
  1 14  1  0  0  0  0
  2  7  1  0  0  0  0
  2  8  1  0  0  0  0
  3  9  1  0  0  0  0
  4  9  2  0  0  0  0
  5 10  1  0  0  0  0
  5 11  1  0  0  0  0
  5 12  1  0  0  0  0
  6 15  1  0  0  0  0
  6 16  1  0  0  0  0
  6 34  1  0  0  0  0
  7 17  2  0  0  0  0
  8 19  2  0  0  0  0
  9 20  1  0  0  0  0
 10 13  1  0  0  0  0
 10 22  1  0  0  0  0
 10 23  1  0  0  0  0
 11 14  1  0  0  0  0
 11 24  1  0  0  0  0
 11 25  1  0  0  0  0
 12 15  1  0  0  0  0
 12 26  1  0  0  0  0
 12 27  1  0  0  0  0
 13 28  1  0  0  0  0
 13 29  1  0  0  0  0
 14 30  1  0  0  0  0
 14 31  1  0  0  0  0
 15 32  1  0  0  0  0
 15 33  1  0  0  0  0
 16 17  1  0  0  0  0
 16 18  2  0  0  0  0
 17 19  1  0  0  0  0
 18 21  1  0  0  0  0
 18 35  1  0  0  0  0
 19 20  1  0  0  0  0
 20 21  2  0  0  0  0
 21 36  1  0  0  0  0
M  CHG  2   3  -1   9   1
M  END
> <PUBCHEM_COMPOUND_CID>
47628

> <PUBCHEM_CONFORMER_RMSD>
0.8

> <PUBCHEM_CONFORMER_DIVERSEORDER>
1
25
27
7
23
2
21
5
11
14
24
17
20
13
10
15
16
6
22
19
18
4
3
26
12
9
8

> <PUBCHEM_MMFF94_PARTIAL_CHARGES>
24
1 -0.56
10 0.27
11 0.27
12 0.27
13 0.28
14 0.28
15 0.37
16 0.1
17 0.29
18 -0.15
19 0.29
2 0.24
20 0.13
21 -0.15
3 -0.52
34 0.4
35 0.15
36 0.15
4 -0.52
5 -0.81
6 -0.87
7 -0.41
8 -0.41
9 0.91

> <PUBCHEM_EFFECTIVE_ROTOR_COUNT>
6.2

> <PUBCHEM_PHARMACOPHORE_FEATURES>
12
1 1 acceptor
1 3 acceptor
1 3 anion
1 4 acceptor
1 5 cation
1 6 cation
1 6 donor
1 7 acceptor
1 8 acceptor
5 2 7 8 17 19 rings
6 1 5 10 11 13 14 rings
6 16 17 18 19 20 21 rings

> <PUBCHEM_HEAVY_ATOM_COUNT>
21

> <PUBCHEM_ATOM_DEF_STEREO_COUNT>
0

> <PUBCHEM_ATOM_UDEF_STEREO_COUNT>
0

> <PUBCHEM_BOND_DEF_STEREO_COUNT>
0

> <PUBCHEM_BOND_UDEF_STEREO_COUNT>
0

> <PUBCHEM_ISOTOPIC_ATOM_COUNT>
0

> <PUBCHEM_COMPONENT_COUNT>
1

> <PUBCHEM_CACTVS_TAUTO_COUNT>
2

> <PUBCHEM_CONFORMER_ID>
0000BA0C00000001

> <PUBCHEM_MMFF94_ENERGY>
59.6532

> <PUBCHEM_FEATURE_SELFOVERLAP>
61.158

> <PUBCHEM_SHAPE_FINGERPRINT>
10411042 1 18196091269465978511
10595046 47 18335422387632909972
10912923 1 18186802461736989512
11315181 36 18334296482856191092
11524674 6 16486976219420899767
11545043 162 18131626777552668496
12107183 9 17759518868517653768
12166972 35 17822293538795170837
12236239 1 18186520999407673908
13073987 5 18410571782566581448
13167823 11 18408039602924254578
13288520 33 18411982481480443677
13533116 47 18263083369920651660
13862211 1 18341611581498703295
14251732 16 18339922714474153888
14420673 8 18123190104774839542
15196674 1 18409730634527743022
15250474 111 18261381231484763506
17834072 33 18334295371002778908
17844677 252 18341336656299652664
17857418 61 18334293171668455946
1813 80 17095814213729130886
18927931 339 18343585161772916143
19433438 28 18202559601249836784
19489759 90 18272368654947912568
21033648 29 16414904267491417098
21065198 48 18334294245636886394
21236236 1 18412826872061497101
21267235 1 18409455816275600483
220451 1 18262245434844131904
2297311 6 18201729461212106588
23081809 10 17894917313361308452
23402539 116 18410853261310881773
23522609 53 18123502537295798585
23559900 14 18338790247151125497
3004659 81 18334579028139374174
335352 9 18411698808139873749
34797466 226 17703518787564338164
4073 2 17968101971326690650
4214541 1 18410573964125338892
497634 4 18259983777442244972
5104073 3 18272089417828765344
559249 180 18336261250079246666
573450 72 18408600336379145680
6327066 14 17900254213827921197
67856867 119 18335143154313097836
7495541 125 18131631222928501592

> <PUBCHEM_SHAPE_MULTIPOLES>
383.79
16.35
2.24
0.69
17.82
0.19
0.01
-4.77
0.55
-3.05
0.16
0.45
-0.04
-1.13

> <PUBCHEM_SHAPE_SELFOVERLAP>
810.825

> <PUBCHEM_SHAPE_VOLUME>
215.6

> <PUBCHEM_COORDINATE_TYPE>
2
5
10

$$$$
